# Created by the Bilbao Crystallographic Server
# http://www.cryst.ehu.es
# Date: 12/12/2024 14:11:15

# Au -- non-magnetic

data_JjDOP3Ex
_audit_creation_date               2024-12-12
_audit_creation_method             "Bilbao Crystallographic Server"
_symmetry_Int_Tables_number        225
#_symmetry_space_group_name_H-M    "Fm-3m1'"
_cell_length_a                     4.17
_cell_length_b                     4.17
_cell_length_c                     4.17
_cell_angle_alpha                  90
_cell_angle_beta                   90
_cell_angle_gamma                  90

loop_
_symmetry_equiv_pos_site_id
_symmetry_equiv_pos_as_xyz
   1   x,y,z
   2   x,y+1/2,z+1/2
   3   x+1/2,y,z+1/2
   4   x+1/2,y+1/2,z
   5   x,-y,-z
   6   x,-y+1/2,-z+1/2
   7   x+1/2,-y,-z+1/2
   8   x+1/2,-y+1/2,-z
   9   -x,y,-z
  10   -x,y+1/2,-z+1/2
  11   -x+1/2,y,-z+1/2
  12   -x+1/2,y+1/2,-z
  13   -x,-y,z
  14   -x,-y+1/2,z+1/2
  15   -x+1/2,-y,z+1/2
  16   -x+1/2,-y+1/2,z
  17   y,z,x
  18   y+1/2,z+1/2,x
  19   y,z+1/2,x+1/2
  20   y+1/2,z,x+1/2
  21   y,-z,-x
  22   y+1/2,-z+1/2,-x
  23   y,-z+1/2,-x+1/2
  24   y+1/2,-z,-x+1/2
  25   -y,z,-x
  26   -y+1/2,z+1/2,-x
  27   -y,z+1/2,-x+1/2
  28   -y+1/2,z,-x+1/2
  29   -y,-z,x
  30   -y+1/2,-z+1/2,x
  31   -y,-z+1/2,x+1/2
  32   -y+1/2,-z,x+1/2
  33   z,x,y
  34   z+1/2,x,y+1/2
  35   z+1/2,x+1/2,y
  36   z,x+1/2,y+1/2
  37   z,-x,-y
  38   z+1/2,-x,-y+1/2
  39   z+1/2,-x+1/2,-y
  40   z,-x+1/2,-y+1/2
  41   -z,x,-y
  42   -z+1/2,x,-y+1/2
  43   -z+1/2,x+1/2,-y
  44   -z,x+1/2,-y+1/2
  45   -z,-x,y
  46   -z+1/2,-x,y+1/2
  47   -z+1/2,-x+1/2,y
  48   -z,-x+1/2,y+1/2
  49   -y,-x,-z
  50   -y+1/2,-x,-z+1/2
  51   -y,-x+1/2,-z+1/2
  52   -y+1/2,-x+1/2,-z
  53   -y,x,z
  54   -y+1/2,x,z+1/2
  55   -y,x+1/2,z+1/2
  56   -y+1/2,x+1/2,z
  57   y,-x,z
  58   y+1/2,-x,z+1/2
  59   y,-x+1/2,z+1/2
  60   y+1/2,-x+1/2,z
  61   y,x,-z
  62   y+1/2,x,-z+1/2
  63   y,x+1/2,-z+1/2
  64   y+1/2,x+1/2,-z
  65   -x,-z,-y
  66   -x,-z+1/2,-y+1/2
  67   -x+1/2,-z+1/2,-y
  68   -x+1/2,-z,-y+1/2
  69   -x,z,y
  70   -x,z+1/2,y+1/2
  71   -x+1/2,z+1/2,y
  72   -x+1/2,z,y+1/2
  73   x,-z,y
  74   x,-z+1/2,y+1/2
  75   x+1/2,-z+1/2,y
  76   x+1/2,-z,y+1/2
  77   x,z,-y
  78   x,z+1/2,-y+1/2
  79   x+1/2,z+1/2,-y
  80   x+1/2,z,-y+1/2
  81   -z,-y,-x
  82   -z+1/2,-y+1/2,-x
  83   -z+1/2,-y,-x+1/2
  84   -z,-y+1/2,-x+1/2
  85   -z,y,x
  86   -z+1/2,y+1/2,x
  87   -z+1/2,y,x+1/2
  88   -z,y+1/2,x+1/2
  89   z,-y,x
  90   z+1/2,-y+1/2,x
  91   z+1/2,-y,x+1/2
  92   z,-y+1/2,x+1/2
  93   z,y,-x
  94   z+1/2,y+1/2,-x
  95   z+1/2,y,-x+1/2
  96   z,y+1/2,-x+1/2
  97   -x,-y,-z
  98   -x,-y+1/2,-z+1/2
  99   -x+1/2,-y,-z+1/2
 100   -x+1/2,-y+1/2,-z
 101   -x,y,z
 102   -x,y+1/2,z+1/2
 103   -x+1/2,y,z+1/2
 104   -x+1/2,y+1/2,z
 105   x,-y,z
 106   x,-y+1/2,z+1/2
 107   x+1/2,-y,z+1/2
 108   x+1/2,-y+1/2,z
 109   x,y,-z
 110   x,y+1/2,-z+1/2
 111   x+1/2,y,-z+1/2
 112   x+1/2,y+1/2,-z
 113   -y,-z,-x
 114   -y+1/2,-z+1/2,-x
 115   -y,-z+1/2,-x+1/2
 116   -y+1/2,-z,-x+1/2
 117   -y,z,x
 118   -y+1/2,z+1/2,x
 119   -y,z+1/2,x+1/2
 120   -y+1/2,z,x+1/2
 121   y,-z,x
 122   y+1/2,-z+1/2,x
 123   y,-z+1/2,x+1/2
 124   y+1/2,-z,x+1/2
 125   y,z,-x
 126   y+1/2,z+1/2,-x
 127   y,z+1/2,-x+1/2
 128   y+1/2,z,-x+1/2
 129   -z,-x,-y
 130   -z+1/2,-x,-y+1/2
 131   -z+1/2,-x+1/2,-y
 132   -z,-x+1/2,-y+1/2
 133   -z,x,y
 134   -z+1/2,x,y+1/2
 135   -z+1/2,x+1/2,y
 136   -z,x+1/2,y+1/2
 137   z,-x,y
 138   z+1/2,-x,y+1/2
 139   z+1/2,-x+1/2,y
 140   z,-x+1/2,y+1/2
 141   z,x,-y
 142   z+1/2,x,-y+1/2
 143   z+1/2,x+1/2,-y
 144   z,x+1/2,-y+1/2
 145   y,x,z
 146   y+1/2,x,z+1/2
 147   y,x+1/2,z+1/2
 148   y+1/2,x+1/2,z
 149   y,-x,-z
 150   y+1/2,-x,-z+1/2
 151   y,-x+1/2,-z+1/2
 152   y+1/2,-x+1/2,-z
 153   -y,x,-z
 154   -y+1/2,x,-z+1/2
 155   -y,x+1/2,-z+1/2
 156   -y+1/2,x+1/2,-z
 157   -y,-x,z
 158   -y+1/2,-x,z+1/2
 159   -y,-x+1/2,z+1/2
 160   -y+1/2,-x+1/2,z
 161   x,z,y
 162   x,z+1/2,y+1/2
 163   x+1/2,z+1/2,y
 164   x+1/2,z,y+1/2
 165   x,-z,-y
 166   x,-z+1/2,-y+1/2
 167   x+1/2,-z+1/2,-y
 168   x+1/2,-z,-y+1/2
 169   -x,z,-y
 170   -x,z+1/2,-y+1/2
 171   -x+1/2,z+1/2,-y
 172   -x+1/2,z,-y+1/2
 173   -x,-z,y
 174   -x,-z+1/2,y+1/2
 175   -x+1/2,-z+1/2,y
 176   -x+1/2,-z,y+1/2
 177   z,y,x
 178   z+1/2,y+1/2,x
 179   z+1/2,y,x+1/2
 180   z,y+1/2,x+1/2
 181   z,-y,-x
 182   z+1/2,-y+1/2,-x
 183   z+1/2,-y,-x+1/2
 184   z,-y+1/2,-x+1/2
 185   -z,y,-x
 186   -z+1/2,y+1/2,-x
 187   -z+1/2,y,-x+1/2
 188   -z,y+1/2,-x+1/2
 189   -z,-y,x
 190   -z+1/2,-y+1/2,x
 191   -z+1/2,-y,x+1/2
 192   -z,-y+1/2,x+1/2

loop_
_atom_site_label
_atom_site_type_symbol
_atom_site_fract_x
_atom_site_fract_y
_atom_site_fract_z
_atom_site_occupancy
Au1 Au 0.00000 0.00000 0.00000 1.0000
